  50
        -81.61675504
 Ni         0.0085093176       -0.0313107860       -2.1865388470
 C          1.5832675745       -0.8074725246       -2.5941598648
 O          2.5853601029       -1.3016424680       -2.8269953775
 C         -0.1104859834        1.7087105600       -2.6412670418
 O         -0.1873110083        2.8160048717       -2.9069332360
 C         -1.4419967176       -1.0155749875       -2.6056192655
 O         -2.3647756213       -1.6420355634       -2.8477949568
 C          2.8505730722        1.3418445459       -0.2829201145
 C          2.7906150898        0.1770452197        0.6540855123
 C          3.9732304194       -0.2674848125        1.2353378609
 C          3.9833619542       -1.2900318263        2.1651564690
 C          2.7890190163       -1.8794300001        2.5433806334
 C          1.6042766914       -1.4608452379        1.9683224443
 C          1.5865487264       -0.4456033700        1.0126784097
 P         -0.0010330159        0.0034872115        0.2146979786
 C         -1.1977951426       -1.1321482472        1.0129396352
 C         -2.1016000027       -0.6224734354        1.9444692583
 C         -3.0671272846       -1.4281288108        2.5173212917
 C         -3.1488198813       -2.7635832373        2.1612178252
 C         -2.2427428693       -3.2831310562        1.2560580691
 C         -1.2558290598       -2.4923190610        0.6775116886
 C         -0.2621134421       -3.1441683361       -0.2313607439
 C         -0.4001004290        1.6214883336        0.9774141078
 C          0.4762538179        2.1657547081        1.9155498426
 C          0.2506157690        3.4141973643        2.4632491979
 C         -0.8588006760        4.1457098132        2.0746913017
 C         -1.7452083978        3.6049255768        1.1624919145
 C         -1.5430717837        2.3452633456        0.6089069875
 C         -2.5876564621        1.7939123711       -0.3093243119
 H          2.9951287873        2.2656004103        0.2781381990
 H          3.6838583642        1.2371959092       -0.9764120814
 H          1.9251202285        1.4391072628       -0.8528405207
 H          4.9008142052        0.2094200472        0.9512281898
 H          4.9164323530       -1.6182870282        2.5988539481
 H          2.7776087761       -2.6665283019        3.2828453448
 H          0.6781817036       -1.9230475528        2.2741633979
 H         -2.0429011950        0.4157773324        2.2332552528
 H         -3.7551924806       -1.0111178733        3.2378354532
 H         -3.9076660260       -3.3991546511        2.5932764192
 H         -2.2895124061       -4.3297715012        0.9897338349
 H         -0.7594739208       -3.8188637170       -0.9268883398
 H          0.3011634187       -2.4018669543       -0.7991180970
 H          0.4500129097       -3.7289549528        0.3516520853
 H          1.3409709708        1.6013861880        2.2294953058
 H          0.9426072630        3.8142816535        3.1895776471
 H         -1.0379415902        5.1277216654        2.4870355457
 H         -2.6234596456        4.1636514635        0.8708517530
 H         -2.2124491559        0.9315865092       -0.8628479301
 H         -3.4560138401        1.4693115147        0.2647851554
 H         -2.9186448024        2.5522523235       -1.0175579541
  50
        -81.61621018
 Ni        -0.1420276548        0.2123516092       -2.2302907387
 C         -0.4828939385       -1.3446799217       -3.0732262418
 O         -0.6710901656       -2.2566400128       -3.7351159021
 C          1.5061165955        0.7890876483       -2.6497233248
 O          2.5790076994        1.0900655743       -2.8985345992
 C         -1.5067518135        1.3741958581       -2.2683537088
 O         -2.3974524647        2.0771533459       -2.1396452896
 C          2.0365432703       -2.2673694392       -0.3639802629
 C          2.4956660210       -1.1504206773        0.5159955045
 C          3.7891897912       -1.1595222161        1.0244486730
 C          4.2416155314       -0.1581706499        1.8640409568
 C          3.3906639928        0.8748476579        2.2194323608
 C          2.1022101884        0.9044799626        1.7219779898
 C          1.6435759158       -0.0951512550        0.8669388504
 P         -0.0368312205       -0.0170199475        0.1494196304
 C         -0.8677481705       -1.4989761821        0.8363557415
 C         -1.7145742723       -2.1738112243       -0.0396145399
 C         -2.3810939412       -3.3242549639        0.3339029683
 C         -2.1956572561       -3.8243268824        1.6109805150
 C         -1.3756156209       -3.1490904736        2.4969421148
 C         -0.7086797739       -1.9803463005        2.1445125826
 C          0.1194747749       -1.2898516312        3.1818194995
 C         -0.8824013787        1.3719692933        0.9942557861
 C         -2.0025384238        1.0913963623        1.7780303433
 C         -2.7286306371        2.1023684115        2.3772283368
 C         -2.3532715913        3.4219902979        2.1903214673
 C         -1.2630166912        3.7118490303        1.3924991929
 C         -0.5215315835        2.7089022538        0.7765189398
 C          0.6215237862        3.1170810536       -0.1016064547
 H          2.8825577408       -2.7934659984       -0.8007783132
 H          1.4427309040       -2.9822138219        0.2067093737
 H          1.4057747140       -1.8821357274       -1.1711140967
 H          4.4508561125       -1.9701378656        0.7531470193
 H          5.2530424518       -0.1859517435        2.2418897711
 H          3.7288873065        1.6578337361        2.8818236118
 H          1.4401995222        1.7052520777        2.0142704088
 H         -1.8523972497       -1.7728030273       -1.0383226978
 H         -3.0338214846       -3.8245637540       -0.3660788750
 H         -2.6964290399       -4.7298942002        1.9201012115
 H         -1.2502403537       -3.5331042885        3.4994625125
 H         -0.2152756576       -1.5756900098        4.1766950889
 H          1.1673566926       -1.5721198199        3.0845823305
 H          0.0470419350       -0.2100806332        3.0842504520
 H         -2.3140639698        0.0669023426        1.9174235581
 H         -3.5881389915        1.8581150579        2.9836546653
 H         -2.9131611517        4.2207458854        2.6538466511
 H         -0.9754991893        4.7409614502        1.2280850339
 H          1.1491035482        2.2498226018       -0.4962874701
 H          0.2499434888        3.7088974132       -0.9395434813
 H          1.3312548182        3.7344015523        0.4480128093
  50
        -81.61576356
 Ni         0.0080059574       -0.0200356122       -2.1776642109
 C          0.5263643035        1.6516876732       -2.5943674666
 O          0.8515034819        2.7218780101       -2.8258254451
 C         -1.6926827475       -0.3891256618       -2.6365564177
 O         -2.7770421028       -0.6115830227       -2.9183521731
 C          1.1943398422       -1.3156199847       -2.5657397689
 O          1.9461897535       -2.1540999327       -2.7564922487
 C          3.0097574596        0.7699392756       -0.3789240940
 C          2.7736284677       -0.3002152437        0.6396884736
 C          3.8667039191       -0.9047609635        1.2484220475
 C          3.7086785956       -1.8824948996        2.2138999675
 C          2.4347119671       -2.2614900370        2.5990960398
 C          1.3339793204       -1.6771910383        2.0003657330
 C          1.4837935821       -0.7049160271        1.0129788494
 P         -0.0022985699       -0.0048961834        0.1965637341
 C         -1.3648391008       -0.9290634670        1.0037764307
 C         -2.1565596025       -0.2964371600        1.9600981149
 C         -3.2190731090       -0.9531283573        2.5531118323
 C         -3.5085312901       -2.2572836528        2.1926869646
 C         -2.7187623545       -2.8978381112        1.2546294103
 C         -1.6433445375       -2.2581259872        0.6513340829
 C         -0.8107846345       -3.0038265475       -0.3423456964
 C         -0.1328807283        1.6529642087        0.9707714836
 C          0.7989902266        2.0402494235        1.9322075162
 C          0.7598913106        3.3020615108        2.4957232957
 C         -0.2148432884        4.2015323374        2.1006483111
 C         -1.1541703771        3.8196538820        1.1601148814
 C         -1.1362756315        2.5539609558        0.5866087476
 C         -2.1943271972        2.1951086724       -0.4088533798
 H          3.9695694189        1.2544529537       -0.2120366506
 H          3.0218923617        0.3396828532       -1.3832845151
 H          2.2254572031        1.5254282822       -0.3419112142
 H          4.8609266482       -0.5961930882        0.9572840823
 H          4.5756127448       -2.3384627889        2.6687051856
 H          2.2935562112       -3.0111240408        3.3634375784
 H          0.3446297924       -1.9782345556        2.3106869352
 H         -1.9379912559        0.7203514989        2.2498343883
 H         -3.8172845333       -0.4437706388        3.2939093105
 H         -4.3406410732       -2.7771694474        2.6439870284
 H         -2.9370111365       -3.9206915421        0.9815927595
 H         -1.0777016632       -2.7018403167       -1.3586184415
 H          0.2493003730       -2.7957653495       -0.1978059671
 H         -0.9726860868       -4.0759702514       -0.2564172183
 H          1.5624594419        1.3458630730        2.2492371072
 H          1.4912426345        3.5788101128        3.2404534884
 H         -0.2495709780        5.1927103469        2.5280930366
 H         -1.9252429326        4.5154123965        0.8603611492
 H         -3.1128800873        2.7424356250       -0.2068021600
 H         -1.8658991845        2.4545496528       -1.4181548517
 H         -2.4111105467        1.1276710603       -0.3837843554
  50
        -81.61292018
 Ni         0.0903520361       -0.1864857764       -2.2399087756
 C          1.4695604934       -1.3206327462       -2.3347372991
 O          2.3646803229       -2.0283817205       -2.2845848439
 C          0.3389537164        1.3520589525       -3.1425920915
 O          0.4727823444        2.2471167151       -3.8400818581
 C         -1.5470716408       -0.8789066078       -2.4928211870
 O         -2.6059128177       -1.3019628953       -2.5403609142
 C          2.6183707637        1.6631415647       -0.1418324445
 C          2.6698539532        0.5018025529        0.7965867163
 C          3.8560864497        0.2233104995        1.4659132468
 C          3.9513075310       -0.8220410376        2.3649411566
 C          2.8389679448       -1.6066190625        2.6162409454
 C          1.6514053526       -1.3491071069        1.9582616143
 C          1.5499022045       -0.3075801857        1.0379123799
 P          0.0001716283        0.0453093061        0.1203166359
 C         -1.1683815558       -1.2723028630        0.6227208179
 C         -0.6762544099       -2.5658741860        0.4234478897
 C         -1.4479535793       -3.6782591536        0.6888524442
 C         -2.7459784135       -3.5086543018        1.1429284219
 C         -3.2626992502       -2.2335355226        1.2718731258
 C         -2.5061020710       -1.0981058043        0.9939411385
 C         -3.1702766237        0.2421434228        1.0612762423
 C         -0.4727161454        1.6436879010        0.8736973521
 C         -0.7104345802        2.6904534495       -0.0140321293
 C         -1.0099024081        3.9619844761        0.4330250008
 C         -1.0657283145        4.2014512331        1.7956904355
 C         -0.8407696416        3.1654226312        2.6837921647
 C         -0.5468211876        1.8760127300        2.2525967960
 C         -0.3394177744        0.8020384803        3.2723069827
 H          3.6173078889        1.9432023492       -0.4688586624
 H          2.0162621961        1.4171950066       -1.0218575591
 H          2.1607204395        2.5245965999        0.3453563710
 H          4.7202597892        0.8432732451        1.2732231889
 H          4.8857484817       -1.0211559023        2.8684953283
 H          2.8916312385       -2.4206350918        3.3240444768
 H          0.7947800650       -1.9687322701        2.1756712289
 H          0.3277306725       -2.6901347563        0.0339105035
 H         -1.0436704290       -4.6675295149        0.5323491335
 H         -3.3623927084       -4.3676523281        1.3629862862
 H         -4.2915700145       -2.1069687503        1.5777564927
 H         -2.9316900828        0.7566689425        1.9903551626
 H         -2.8470822101        0.8699546807        0.2325578055
 H         -4.2504270056        0.1243254486        1.0064637989
 H         -0.6634477221        2.4865522604       -1.0788015970
 H         -1.1941924072        4.7566306116       -0.2746119407
 H         -1.2907025423        5.1909051638        2.1653833517
 H         -0.8970588100        3.3554106723        3.7463357216
 H         -0.6594886989       -0.1647406976        2.8926477861
 H          0.7160251650        0.7320562094        3.5352978918
 H         -0.8965063247        1.0294631762        4.1789754878
  50
        -81.61182833
 Ni        -0.1197049091       -0.4245515328       -2.1986646752
 C          0.4762854007        0.9649998590       -3.1615644372
 O          0.7577241685        1.8386265172       -3.8413118487
 C         -1.8506515276       -0.7584264554       -2.5555453375
 O         -2.8686801253       -1.1001298748       -2.9417833755
 C          0.7069624750       -2.0101268547       -2.2694574141
 O          1.1194913521       -3.0752760889       -2.2786255441
 C          0.8671851220        0.0558627173        3.3302251712
 C          1.8687554808       -0.3910187770        2.3131400572
 C          3.1264568775       -0.7835848595        2.7605864951
 C          4.1257310612       -1.1848915580        1.8933526882
 C          3.8825845533       -1.1947158536        0.5310696997
 C          2.6397707538       -0.8102973030        0.0682027698
 C          1.6182077769       -0.4221729757        0.9331046129
 P          0.0542136167        0.1063135027        0.1312533555
 C         -1.2656719454       -0.9146543547        0.8838305697
 C         -0.8853423043       -2.1074367670        1.5011539768
 C         -1.8272259651       -2.9848652464        2.0008646877
 C         -3.1742431684       -2.6858578321        1.8780260462
 C         -3.5600143864       -1.5260416537        1.2329776937
 C         -2.6279991660       -0.6338277719        0.7120113210
 C         -3.1334278461        0.5739306796       -0.0194663154
 C         -0.1005506137        1.7824726890        0.8570018717
 C         -1.0955497096        2.0678178287        1.7898141103
 C         -1.2222581291        3.3322396037        2.3309787989
 C         -0.3491387891        4.3361542530        1.9464424434
 C          0.6569152305        4.0539471793        1.0421593052
 C          0.8055517717        2.7852393613        0.4916887293
 C          1.9521770031        2.5250488049       -0.4308326118
 H          0.9209069981        1.1380791527        3.4490862817
 H         -0.1444722912       -0.2045403160        3.0370033532
 H          1.0818346346       -0.4002762822        4.2942831492
 H          3.3232217545       -0.7691922411        3.8233126906
 H          5.0895217775       -1.4839732262        2.2782685144
 H          4.6510496460       -1.4956461913       -0.1656329568
 H          2.4501061836       -0.8005122105       -1.0005019657
 H          0.1656852058       -2.3479310843        1.5853280112
 H         -1.5106441678       -3.8998615863        2.4792681842
 H         -3.9208128451       -3.3619250352        2.2680005643
 H         -4.6113070432       -1.3039730272        1.1129258703
 H         -3.5875919304        1.2865159712        0.6684094259
 H         -2.3295932802        1.0789258547       -0.5565297992
 H         -3.9020906604        0.2791656161       -0.7333813179
 H         -1.7681805304        1.2885168640        2.1109630604
 H         -2.0003336005        3.5316280117        3.0530431265
 H         -0.4455131899        5.3305257216        2.3569223217
 H          1.3520039676        4.8299661297        0.7540154365
 H          2.8379592198        2.2541806626        0.1453147897
 H          1.7285083701        1.6981236894       -1.1061995257
 H          2.1867775819        3.4100032565       -1.0192412017
  50
        -81.61129490
 Ni         0.2597340514       -0.5731895012       -2.1473247180
 C         -0.8021613658        0.1739752027       -3.4041994127
 O         -1.3755068000        0.5079668262       -4.3326790386
 C         -0.1226334884       -2.3090797941       -1.9277043705
 O         -0.4299868361       -3.3856867184       -1.7041810985
 C          1.9942222172       -0.1310522012       -2.3028657483
 O          3.0972769290        0.1595144643       -2.2932661962
 C          2.3905709751        2.1341323278        0.8652265864
 C          2.5744082150        0.6692509093        1.1154963551
 C          3.7992330684        0.2214501166        1.6023404526
 C          4.0766469468       -1.1234476583        1.7570154994
 C          3.1298572845       -2.0642056530        1.3854033486
 C          1.9022687363       -1.6395012336        0.9195046700
 C          1.5876185263       -0.2808663324        0.8316695740
 P         -0.0567265792        0.0971934744        0.1213619727
 C         -1.2288527555       -0.9504722628        1.0707125923
 C         -0.8410368337       -1.6697411023        2.1988146336
 C         -1.7513912037       -2.4394504614        2.8988690562
 C         -3.0696701502       -2.4994516026        2.4821417186
 C         -3.4707315537       -1.7603899094        1.3849933901
 C         -2.5738480968       -0.9703784092        0.6762390853
 C         -3.0666530756       -0.1273847898       -0.4539177196
 C         -0.5701290068        1.6820862582        0.8941828968
 C         -0.5792621015        1.6792628072        2.2900754014
 C         -1.0007877730        2.7841738450        3.0003167898
 C         -1.4296545167        3.9127139566        2.3181892298
 C         -1.4074541604        3.9260060038        0.9378990412
 C         -0.9745335212        2.8244310537        0.2024794972
 C         -0.9479076670        2.9269490258       -1.2893680902
 H          1.7899119083        2.2940697028       -0.0287391429
 H          1.8932491417        2.6181211986        1.7047059023
 H          3.3586029400        2.6104830171        0.7230873500
 H          4.5590634053        0.9515536913        1.8431280290
 H          5.0387178099       -1.4387693399        2.1331380792
 H          3.3482581046       -3.1201887326        1.4494838936
 H          1.1698050561       -2.3712747406        0.6001516218
 H          0.1818745800       -1.6332047350        2.5436844965
 H         -1.4266467591       -2.9914177682        3.7687455740
 H         -3.7836313591       -3.1090449974        3.0161702119
 H         -4.5046717805       -1.7867264715        1.0709524848
 H         -4.0140481663       -0.4990706541       -0.8376056715
 H         -3.2092751390        0.8983590260       -0.1118319854
 H         -2.3355001007       -0.1116049351       -1.2675809027
 H         -0.2438376417        0.7994238747        2.8200209254
 H         -0.9971972719        2.7652491514        4.0800763863
 H         -1.7711148780        4.7806886460        2.8626675033
 H         -1.7279357870        4.8096339666        0.4043674343
 H         -0.3450955551        2.1275389410       -1.7235430784
 H         -1.9571961651        2.8567808972       -1.6952406113
 H         -0.5307557246        3.8845365983       -1.5964789845
  50
        -81.61099496
 Ni         0.1238365996       -0.5674098682       -2.1505677384
 C         -0.8889322397        0.3966319962       -3.2943772978
 O         -1.4887374778        0.8744563557       -4.1397682147
 C         -0.5208926254       -2.2290418818       -1.9477327179
 O         -0.9771844242       -3.2506417691       -1.7193879920
 C          1.8945358303       -0.3986231739       -2.4030922999
 O          3.0277131558       -0.2750237766       -2.4574116616
 C          2.4303638750        2.0252069142        1.4915137978
 C          2.6048330080        0.5418129124        1.3846605572
 C          3.8051226138       -0.0141283691        1.8228320173
 C          4.0821945988       -1.3619265765        1.7016680815
 C          3.1537666255       -2.1988577595        1.1040869747
 C          1.9553718991       -1.6701942049        0.6731870656
 C          1.6456032748       -0.3160260699        0.8373725061
 P          0.0070807941        0.1177684034        0.1371481550
 C         -1.1603075558       -0.9413139442        1.0784583451
 C         -0.7361180581       -1.7901982955        2.0979556052
 C         -1.6353517814       -2.5948131713        2.7730803573
 C         -2.9775082221       -2.5616843934        2.4374403683
 C         -3.4107559268       -1.7014535557        1.4454436694
 C         -2.5252468290       -0.8767162250        0.7627750579
 C         -3.0499132259        0.0813371017       -0.2569888226
 C         -0.4951452837        1.7315308160        0.8530381602
 C         -0.8553894905        1.7217219563        2.2023562357
 C         -1.3062373614        2.8666362075        2.8273679925
 C         -1.4136670264        4.0449509159        2.1049856983
 C         -1.0404453096        4.0659700789        0.7758650786
 C         -0.5681794215        2.9250537888        0.1311176869
 C         -0.1374343865        3.0452289768       -1.2964906146
 H          2.0351461096        2.4315004022        0.5640220584
 H          1.7437092037        2.2815153130        2.2963800599
 H          3.3882334478        2.4979501531        1.6969343813
 H          4.5473086269        0.6393933637        2.2590943441
 H          5.0260792953       -1.7550917062        2.0492947555
 H          3.3636489774       -3.2496556567        0.9678828790
 H          1.2318999341       -2.3156846902        0.1858870985
 H          0.3067586662       -1.8235421375        2.3767483715
 H         -1.2833375643       -3.2466176229        3.5592046449
 H         -3.6843272869       -3.1962860197        2.9514475282
 H         -4.4610621419       -1.6612482814        1.1932298731
 H         -3.1927872973        1.0643292811        0.1932666934
 H         -2.3400197517        0.1910327431       -1.0820677008
 H         -4.0038557272       -0.2566129013       -0.6560449856
 H         -0.7746720345        0.8047868726        2.7678165539
 H         -1.5760911881        2.8385453556        3.8726675847
 H         -1.7774986379        4.9440100644        2.5799794950
 H         -1.1066346251        4.9867443230        0.2138296397
 H          0.3928609569        2.1499271045       -1.6253951636
 H         -1.0034740987        3.1936398172       -1.9422698714
 H          0.5203869092        3.9041330926       -1.4223249099
  50
        -81.61025275
 Ni        -0.2241023167        0.0082176147       -2.2398314935
 C          1.4285025672        0.3674351282       -2.8200304710
 O          2.4564380043        0.6823322619       -3.2076934522
 C         -1.2975682945        1.4263197076       -2.4925686934
 O         -1.9557219408        2.3318759099       -2.7119366676
 C         -1.0215554133       -1.4960491285       -2.8079855907
 O         -1.6034930996       -2.3843449040       -3.2272739664
 C          0.9346550920        0.0250871507        3.2522606814
 C          1.8459138988       -0.6004463553        2.2448710081
 C          3.0466367615       -1.1515558598        2.6810544729
 C          3.9392205447       -1.7476205107        1.8093649694
 C          3.6427407012       -1.8048041316        0.4581935680
 C          2.4538186948       -1.2669958148        0.0072528258
 C          1.5508157272       -0.6600700013        0.8773550276
 P         -0.0130528784       -0.0665039172        0.1299098616
 C         -1.1922951213       -1.0430120959        1.1465391162
 C         -2.0286220271       -0.4539286064        2.0938262728
 C         -2.9147317786       -1.2106401511        2.8365026476
 C         -2.9796081367       -2.5804409578        2.6483230203
 C         -2.1332807906       -3.1781623704        1.7346274887
 C         -1.2287091531       -2.4355816314        0.9829449718
 C         -0.3004626626       -3.1634407611        0.0646878102
 C         -0.2999984256        1.6866986164        0.5808941882
 C         -1.6335420729        2.1006513655        0.5133364359
 C         -1.9928949982        3.4085752558        0.7680709550
 C         -1.0092294929        4.3359656443        1.0713381300
 C          0.3180997853        3.9510054734        1.0599823124
 C          0.7022008456        2.6397525996        0.7939704293
 C          2.1613007116        2.3177712101        0.7050056428
 H          0.3666463942        0.8423493828        2.8166525491
 H          0.2297559397       -0.7170838216        3.6272941117
 H          1.5066377594        0.4021432550        4.0976396905
 H          3.2832241574       -1.1077189694        3.7348473094
 H          4.8630743561       -2.1645303452        2.1822739358
 H          4.3279809381       -2.2654048095       -0.2378998345
 H          2.2082247865       -1.3149441687       -1.0488007465
 H         -1.9880911528        0.6094277930        2.2708715892
 H         -3.5516766153       -0.7266937368        3.5621771440
 H         -3.6766739841       -3.1787782954        3.2162031587
 H         -2.1646055191       -4.2498486645        1.5972986350
 H          0.5959115652       -3.4662157979        0.6072556915
 H         -0.7744703917       -4.0581497957       -0.3344841026
 H          0.0108384322       -2.5277679326       -0.7657039798
 H         -2.3933574896        1.3814910757        0.2306892586
 H         -3.0306969976        3.7037133809        0.7173628767
 H         -1.2742408284        5.3617108462        1.2808892933
 H          1.0866231252        4.6884227272        1.2438954900
 H          2.3438862152        1.6023582857       -0.0957764829
 H          2.7308640591        3.2218810267        0.5002071087
 H          2.5293600796        1.8877271536        1.6350602003
  50
        -81.61004120
 Ni        -0.0309234306       -0.0873303379       -2.2300410155
 C          0.7077456440        1.4945406369       -2.6345771844
 O          1.1973357366        2.5224624316       -2.7350549362
 C         -1.7820230333       -0.3404714288       -2.5465286844
 O         -2.8853876493       -0.5991496657       -2.6865576232
 C          0.8833018845       -1.5599304226       -2.7074104683
 O          1.4093989319       -2.5193221070       -3.0373275796
 C          0.7017512322       -0.9365361490        3.2012938450
 C          1.7593530398       -1.0860512789        2.1549985514
 C          2.9779380582       -1.6545413130        2.5105442584
 C          4.0220280546       -1.7739097869        1.6116349726
 C          3.8692882617       -1.3017255316        0.3194500840
 C          2.6594919671       -0.7527530422       -0.0576229131
 C          1.5917922910       -0.6526689500        0.8323870814
 P          0.0502914756        0.0553604242        0.1384431989
 C         -1.2473813746       -1.0176849911        0.8795204663
 C         -1.1428785861       -2.3073747235        0.3479271297
 C         -2.0186099094       -3.3122900402        0.6946397362
 C         -3.0467056962       -3.0311234400        1.5818311867
 C         -3.1545378460       -1.7637492088        2.1159034366
 C         -2.2660199183       -0.7371867882        1.7930174288
 C         -2.4742871975        0.5777616177        2.4806223090
 C          0.0546322990        1.7678793568        0.7829888912
 C          1.1464423003        2.2155256779        1.5251804159
 C          1.2408412888        3.5373323502        1.9201283984
 C          0.2524906694        4.4363649694        1.5593071228
 C         -0.8251216490        4.0036970282        0.8065588967
 C         -0.9413563131        2.6804251750        0.4034659072
 C         -2.1147540255        2.2627305338       -0.4237684728
 H          0.0106454174       -1.7783157296        3.1676177949
 H          1.1548449748       -0.9113998179        4.1900278643
 H          0.1377757784       -0.0210101951        3.0496749577
 H          3.1091972498       -2.0037477208        3.5249612496
 H          4.9547384667       -2.2217915673        1.9212941212
 H          4.6804872869       -1.3643451857       -0.3909345011
 H          2.5316839548       -0.3825460627       -1.0702076917
 H         -0.3470339080       -2.5105774834       -0.3627077939
 H         -1.9088561827       -4.2997284076        0.2710312159
 H         -3.7558154674       -3.7984229739        1.8551030429
 H         -3.9500328615       -1.5471942308        2.8149280074
 H         -1.6412426871        1.2550012353        2.3347793139
 H         -3.3786406192        1.0562089438        2.1058737324
 H         -2.6098464438        0.4119667328        3.5484070612
 H          1.9304450073        1.5247873090        1.7974513789
 H          2.0899276267        3.8621483513        2.5028981842
 H          0.3215562215        5.4717701612        1.8582828905
 H         -1.5938606165        4.7062141567        0.5173388038
 H         -1.8878690677        2.4109901135       -1.4830550961
 H         -2.3472939883        1.2094585033       -0.2715005390
 H         -2.9917972661        2.8603697857       -0.1846737596
  50
        -81.60986347
 Ni         0.0301385250        0.3499359709       -2.1982330124
 C          1.6823384499        1.0418319231       -2.2251501750
 O          2.6976833034        1.5503795224       -2.1159939759
 C         -1.1595153445        1.6847470005       -2.4402597462
 O         -1.8001522299        2.5795858986       -2.7389311173
 C         -0.4018001783       -1.0253375216       -3.2784809961
 O         -0.7503686083       -1.7476830986       -4.0913211673
 C          2.5883179555       -1.9085554664       -0.9389014508
 C          2.5306909136       -1.4800672789        0.4939638719
 C          3.5900129636       -1.8603207852        1.3184500983
 C          3.6207628024       -1.5422599470        2.6599268032
 C          2.5675375153       -0.8312727450        3.2152058383
 C          1.5140879191       -0.4422942527        2.4161378546
 C          1.4850147307       -0.7401222509        1.0502620625
 P         -0.0155363333       -0.1791988200        0.1439556353
 C         -1.1918377440       -1.2044983033        1.1111659505
 C         -1.7674659767       -0.6814230561        2.2674208449
 C         -2.6076367665       -1.4480965538        3.0515193334
 C         -2.8880585966       -2.7540767459        2.6869887854
 C         -2.3079070892       -3.2840260649        1.5502677069
 C         -1.4488708693       -2.5323833172        0.7562570335
 C         -0.7918068004       -3.1666388151       -0.4250897215
 C         -0.2768353043        1.5207766018        0.7751977022
 C          0.8408219840        2.2654746380        1.1506059554
 C          0.7212578036        3.5860568956        1.5383315489
 C         -0.5260921754        4.1873530921        1.5452793830
 C         -1.6333999266        3.4681850859        1.1349729249
 C         -1.5330169878        2.1422352627        0.7278163142
 C         -2.7711542503        1.4419687862        0.2534360142
 H          1.7074263848       -1.5799479209       -1.4904296140
 H          3.4754063028       -1.4957783430       -1.4200279097
 H          2.6541994410       -2.9939252751       -1.0043630616
 H          4.4021830919       -2.4247902259        0.8819715251
 H          4.4548831564       -1.8510214661        3.2726487940
 H          2.5677248964       -0.5826949051        4.2661038014
 H          0.6983700514        0.1121217690        2.8550681224
 H         -1.5606625888        0.3376661323        2.5597517589
 H         -3.0436809110       -1.0239055551        3.9442100897
 H         -3.5506500018       -3.3579102877        3.2894135378
 H         -2.5151267200       -4.3072917604        1.2706671664
 H         -1.3688952275       -4.0135899523       -0.7889821405
 H         -0.6771499150       -2.4410649721       -1.2315129536
 H          0.2008688695       -3.5199222014       -0.1461812396
 H          1.8182786645        1.8029060223        1.1326734146
 H          1.5998276262        4.1436224771        1.8280247925
 H         -0.6332158619        5.2175929150        1.8515767955
 H         -2.6035128627        3.9451597231        1.1145295685
 H         -3.3894628864        2.1267161505       -0.3255123955
 H         -2.5243223327        0.5799651861       -0.3684883370
 H         -3.3656844538        1.0897085273        1.0961680160
  50
        -81.60957617
 Ni         0.2738722743       -0.3907841981       -2.1748683884
 C          0.3063444245       -2.1717558144       -1.9985553631
 O          0.3527304593       -3.2861740083       -1.7585798364
 C          1.9181234547        0.3051737387       -2.4190144802
 O          2.9787981870        0.6782738243       -2.6071823610
 C         -0.8794165860        0.2976190331       -3.3797134633
 O         -1.4372514102        0.6947411169       -4.2930723766
 C          2.0019355918        2.4193325682        0.1452776360
 C          2.4432981628        1.0751164853        0.6382645516
 C          3.7705647209        0.8957889674        1.0120840829
 C          4.2526598827       -0.3388559032        1.4060636327
 C          3.4071417046       -1.4358417941        1.4074379500
 C          2.0807278257       -1.2750858944        1.0570127072
 C          1.5741915521       -0.0216573376        0.7132728228
 P         -0.1612707532        0.0827067772        0.1377226384
 C         -1.0501967354       -1.1600230430        1.1640416831
 C         -0.5945120065       -1.3880420134        2.4645950452
 C         -1.2297940205       -2.2808641894        3.3026698189
 C         -2.3482679437       -2.9658348275        2.8555095974
 C         -2.8211794963       -2.7287817312        1.5813407117
 C         -2.1995231638       -1.8234839868        0.7231370342
 C         -2.8248460092       -1.5988716499       -0.6172070961
 C         -0.8290530438        1.5532442729        1.0156500826
 C         -0.2759749559        1.8562667962        2.2601754598
 C         -0.7690701641        2.8924949291        3.0267541190
 C         -1.8284446320        3.6509622885        2.5552313479
 C         -2.3736145553        3.3632463441        1.3199733825
 C         -1.8942556324        2.3177086589        0.5348601459
 C         -2.5433637879        2.0564336275       -0.7854649129
 H          1.6752803561        3.0509007545        0.9710382119
 H          2.8257846028        2.9215554670       -0.3592240011
 H          1.1707444750        2.3211783845       -0.5556248205
 H          4.4406011019        1.7433179443        0.9733645735
 H          5.2897037745       -0.4503070069        1.6867142194
 H          3.7790735003       -2.4143314206        1.6739779457
 H          1.4249733904       -2.1357523016        1.0405399543
 H          0.2802080868       -0.8704965399        2.8265890841
 H         -0.8512027985       -2.4424840374        4.3011563487
 H         -2.8498044966       -3.6734909087        3.4990970734
 H         -3.7014617907       -3.2489787652        1.2303852285
 H         -3.0390900615       -2.5505756009       -1.1024418410
 H         -3.7682135455       -1.0666023763       -0.5002062750
 H         -2.1742593159       -1.0121279990       -1.2666878040
 H          0.5632902250        1.2843144653        2.6272094845
 H         -0.3247099565        3.1097809894        3.9869758043
 H         -2.2219241604        4.4649635118        3.1460521662
 H         -3.1953268348        3.9571112030        0.9453087903
 H         -3.4442027963        1.4591857226       -0.6503510217
 H         -2.8272459848        2.9905287869       -1.2664190423
 H         -1.8656934106        1.5122909732       -1.4430749682
  50
        -81.60953681
 Ni         0.0339990060       -0.0181225395       -2.2310943106
 C          1.4027577292       -1.1214299008       -2.6025085107
 O          2.2732255929       -1.8385356103       -2.7842900455
 C          0.2995379475        1.7165248204       -2.6078747286
 O          0.4746701444        2.8381125533       -2.7412357269
 C         -1.5742141494       -0.7050033128       -2.6610104093
 O         -2.5888009091       -1.1821553631       -2.8762828900
 C          1.1686072882       -1.7269171644        2.8218684875
 C          2.1190181771       -1.0597737425        1.8777959712
 C          3.4847045440       -1.1839019960        2.1238199546
 C          4.4381461171       -0.5688252610        1.3354142791
 C          4.0372263867        0.2086462088        0.2617690274
 C          2.6907689437        0.3257141583       -0.0123480514
 C          1.7182643361       -0.3007915035        0.7716313321
 P          0.0195526638        0.0129862193        0.1467721426
 C         -1.0744364122       -1.2846304814        0.8446293167
 C         -0.9701058342       -2.4771209923        0.1243492998
 C         -1.7286942483       -3.5855769390        0.4367547889
 C         -2.6358807557       -3.5048747731        1.4806934432
 C         -2.7409185187       -2.3323683048        2.2036779156
 C         -1.9678187029       -1.2084864791        1.9198569084
 C         -2.1395316139       -0.0062566066        2.7970361774
 C         -0.3855104455        1.6322658957        0.8874342504
 C          0.5427948342        2.2799850829        1.7004879437
 C          0.2861006961        3.5436081277        2.1990707743
 C         -0.8994075622        4.1820876248        1.8784888209
 C         -1.8218167937        3.5478576343        1.0650681277
 C         -1.5859449741        2.2773212710        0.5572800145
 C         -2.5986944026        1.6353782851       -0.3363481010
 H          0.4011843075       -1.0330386279        3.1510960551
 H          0.6800367996       -2.5752861505        2.3454627266
 H          1.7049759166       -2.0903055161        3.6954179343
 H          3.8040594824       -1.7797124371        2.9671577846
 H          5.4875530737       -0.6905936620        1.5594266977
 H          4.7637112513        0.7098777236       -0.3607156790
 H          2.3693211089        0.9240605893       -0.8598934065
 H         -0.2706930405       -2.5213683811       -0.7056709601
 H         -1.6214592614       -4.4962861432       -0.1338590735
 H         -3.2544409989       -4.3536550468        1.7318015344
 H         -3.4431012505       -2.2790461359        3.0234670603
 H         -1.2110141973        0.5437853514        2.9153676115
 H         -2.8771840772        0.6741224295        2.3729555209
 H         -2.4949582545       -0.3136284970        3.7783683809
 H          1.4715071868        1.7885925830        1.9512708233
 H          1.0141372844        4.0274228056        2.8332015011
 H         -1.1050053415        5.1718743415        2.2583789042
 H         -2.7456005712        4.0490614302        0.8123091682
 H         -3.5807587727        2.0830316303       -0.2001275908
 H         -2.3069513884        1.7750509631       -1.3815555364
 H         -2.6661293283        0.5632308101       -0.1523339329
