%mem=16GB
%nprocshared=16
# opt freq B3LYP/6-31G(d) empiricaldispersion=gd3bj integral=ultrafine 

-81.61004120

0 1
Ni                 -0.03092343   -0.08733034   -2.23004102
 C                  0.70774564    1.49454064   -2.63457718
 O                  1.19733574    2.52246243   -2.73505494
 C                 -1.78202303   -0.34047143   -2.54652868
 O                 -2.88538765   -0.59914967   -2.68655762
 C                  0.88330188   -1.55993042   -2.70741047
 O                  1.40939893   -2.51932211   -3.03732758
 C                  0.70175123   -0.93653615    3.20129384
 C                  1.75935304   -1.08605128    2.15499855
 C                  2.97793806   -1.65454131    2.51054426
 C                  4.02202805   -1.77390979    1.61163497
 C                  3.86928826   -1.30172553    0.31945008
 C                  2.65949197   -0.75275304   -0.05762291
 C                  1.59179229   -0.65266895    0.83238708
 P                  0.05029148    0.05536042    0.13844320
 C                 -1.24738137   -1.01768499    0.87952047
 C                 -1.14287859   -2.30737472    0.34792713
 C                 -2.01860991   -3.31229004    0.69463974
 C                 -3.04670570   -3.03112344    1.58183119
 C                 -3.15453785   -1.76374921    2.11590344
 C                 -2.26601992   -0.73718679    1.79301743
 C                 -2.47428720    0.57776162    2.48062231
 C                  0.05463230    1.76787936    0.78298889
 C                  1.14644230    2.21552568    1.52518042
 C                  1.24084129    3.53733235    1.92012840
 C                  0.25249067    4.43636497    1.55930712
 C                 -0.82512165    4.00369703    0.80655890
 C                 -0.94135631    2.68042517    0.40346591
 C                 -2.11475403    2.26273053   -0.42376847
 H                  0.01064542   -1.77831573    3.16761779
 H                  1.15484497   -0.91139982    4.19002786
 H                  0.13777578   -0.02101020    3.04967496
 H                  3.10919725   -2.00374772    3.52496125
 H                  4.95473847   -2.22179157    1.92129412
 H                  4.68048729   -1.36434519   -0.39093450
 H                  2.53168395   -0.38254606   -1.07020769
 H                 -0.34703391   -2.51057748   -0.36270779
 H                 -1.90885618   -4.29972841    0.27103122
 H                 -3.75581547   -3.79842297    1.85510304
 H                 -3.95003286   -1.54719423    2.81492801
 H                 -1.64124269    1.25500124    2.33477931
 H                 -3.37864062    1.05620894    2.10587373
 H                 -2.60984644    0.41196673    3.54840706
 H                  1.93044501    1.52478731    1.79745138
 H                  2.08992763    3.86214835    2.50289818
 H                  0.32155622    5.47177016    1.85828289
 H                 -1.59386062    4.70621416    0.51733880
 H                 -1.88786907    2.41099011   -1.48305510
 H                 -2.34729399    1.20945850   -0.27150054
 H                 -2.99179727    2.86036979   -0.18467376

