%mem=16GB
%nprocshared=16
# opt freq B3LYP/6-31G(d) empiricaldispersion=gd3bj integral=ultrafine 

-81.60953681

0 1
Ni                  0.03399901   -0.01812254   -2.23109431
 C                  1.40275773   -1.12142990   -2.60250851
 O                  2.27322559   -1.83853561   -2.78429005
 C                  0.29953795    1.71652482   -2.60787473
 O                  0.47467014    2.83811255   -2.74123573
 C                 -1.57421415   -0.70500331   -2.66101041
 O                 -2.58880091   -1.18215536   -2.87628289
 C                  1.16860729   -1.72691716    2.82186849
 C                  2.11901818   -1.05977374    1.87779597
 C                  3.48470454   -1.18390200    2.12381995
 C                  4.43814612   -0.56882526    1.33541428
 C                  4.03722639    0.20864621    0.26176903
 C                  2.69076894    0.32571416   -0.01234805
 C                  1.71826434   -0.30079150    0.77163133
 P                  0.01955266    0.01298622    0.14677214
 C                 -1.07443641   -1.28463048    0.84462932
 C                 -0.97010583   -2.47712099    0.12434930
 C                 -1.72869425   -3.58557694    0.43675479
 C                 -2.63588076   -3.50487477    1.48069344
 C                 -2.74091852   -2.33236830    2.20367792
 C                 -1.96781870   -1.20848648    1.91985691
 C                 -2.13953161   -0.00625661    2.79703618
 C                 -0.38551045    1.63226590    0.88743425
 C                  0.54279483    2.27998508    1.70048794
 C                  0.28610070    3.54360813    2.19907077
 C                 -0.89940756    4.18208762    1.87848882
 C                 -1.82181679    3.54785763    1.06506813
 C                 -1.58594497    2.27732127    0.55728001
 C                 -2.59869440    1.63537829   -0.33634810
 H                  0.40118431   -1.03303863    3.15109606
 H                  0.68003680   -2.57528615    2.34546273
 H                  1.70497592   -2.09030552    3.69541793
 H                  3.80405948   -1.77971244    2.96715778
 H                  5.48755307   -0.69059366    1.55942670
 H                  4.76371125    0.70987772   -0.36071568
 H                  2.36932111    0.92406059   -0.85989341
 H                 -0.27069304   -2.52136838   -0.70567096
 H                 -1.62145926   -4.49628614   -0.13385907
 H                 -3.25444100   -4.35365505    1.73180153
 H                 -3.44310125   -2.27904614    3.02346706
 H                 -1.21101420    0.54378535    2.91536761
 H                 -2.87718408    0.67412243    2.37295552
 H                 -2.49495825   -0.31362850    3.77836838
 H                  1.47150719    1.78859258    1.95127082
 H                  1.01413728    4.02742281    2.83320150
 H                 -1.10500534    5.17187434    2.25837890
 H                 -2.74560057    4.04906143    0.81230917
 H                 -3.58075877    2.08303163   -0.20012759
 H                 -2.30695139    1.77505096   -1.38155554
 H                 -2.66612933    0.56323081   -0.15233393

