%mem=16GB
%nprocshared=16
# opt freq B3LYP/6-31G(d) empiricaldispersion=gd3bj integral=ultrafine 

-81.61182833

0 1
Ni                 -0.11970491   -0.42455153   -2.19866468
 C                  0.47628540    0.96499986   -3.16156444
 O                  0.75772417    1.83862652   -3.84131185
 C                 -1.85065153   -0.75842646   -2.55554534
 O                 -2.86868013   -1.10012987   -2.94178338
 C                  0.70696247   -2.01012685   -2.26945741
 O                  1.11949135   -3.07527609   -2.27862554
 C                  0.86718512    0.05586272    3.33022517
 C                  1.86875548   -0.39101878    2.31314006
 C                  3.12645688   -0.78358486    2.76058650
 C                  4.12573106   -1.18489156    1.89335269
 C                  3.88258455   -1.19471585    0.53106970
 C                  2.63977075   -0.81029730    0.06820277
 C                  1.61820778   -0.42217298    0.93310461
 P                  0.05421362    0.10631350    0.13125336
 C                 -1.26567195   -0.91465435    0.88383057
 C                 -0.88534230   -2.10743677    1.50115398
 C                 -1.82722597   -2.98486525    2.00086469
 C                 -3.17424317   -2.68585783    1.87802605
 C                 -3.56001439   -1.52604165    1.23297769
 C                 -2.62799917   -0.63382777    0.71201132
 C                 -3.13342785    0.57393068   -0.01946632
 C                 -0.10055061    1.78247269    0.85700187
 C                 -1.09554971    2.06781783    1.78981411
 C                 -1.22225813    3.33223960    2.33097880
 C                 -0.34913879    4.33615425    1.94644244
 C                  0.65691523    4.05394718    1.04215931
 C                  0.80555177    2.78523936    0.49168873
 C                  1.95217700    2.52504880   -0.43083261
 H                  0.92090700    1.13807915    3.44908628
 H                 -0.14447229   -0.20454032    3.03700335
 H                  1.08183463   -0.40027628    4.29428315
 H                  3.32322175   -0.76919224    3.82331269
 H                  5.08952178   -1.48397323    2.27826851
 H                  4.65104965   -1.49564619   -0.16563296
 H                  2.45010618   -0.80051221   -1.00050197
 H                  0.16568521   -2.34793108    1.58532801
 H                 -1.51064417   -3.89986159    2.47926818
 H                 -3.92081285   -3.36192504    2.26800056
 H                 -4.61130704   -1.30397303    1.11292587
 H                 -3.58759193    1.28651597    0.66840943
 H                 -2.32959328    1.07892585   -0.55652980
 H                 -3.90209066    0.27916562   -0.73338132
 H                 -1.76818053    1.28851686    2.11096306
 H                 -2.00033360    3.53162801    3.05304313
 H                 -0.44551319    5.33052572    2.35692232
 H                  1.35200397    4.82996613    0.75401544
 H                  2.83795922    2.25418066    0.14531479
 H                  1.72850837    1.69812369   -1.10619953
 H                  2.18677758    3.41000326   -1.01924120

