%mem=16GB
%nprocshared=16
# opt freq B3LYP/6-31G(d) empiricaldispersion=gd3bj integral=ultrafine 

-81.61675504

0 1
Ni                  0.00850932   -0.03131079   -2.18653885
 C                  1.58326757   -0.80747252   -2.59415986
 O                  2.58536010   -1.30164247   -2.82699538
 C                 -0.11048598    1.70871056   -2.64126704
 O                 -0.18731101    2.81600487   -2.90693324
 C                 -1.44199672   -1.01557499   -2.60561927
 O                 -2.36477562   -1.64203556   -2.84779496
 C                  2.85057307    1.34184455   -0.28292011
 C                  2.79061509    0.17704522    0.65408551
 C                  3.97323042   -0.26748481    1.23533786
 C                  3.98336195   -1.29003183    2.16515647
 C                  2.78901902   -1.87943000    2.54338063
 C                  1.60427669   -1.46084524    1.96832244
 C                  1.58654873   -0.44560337    1.01267841
 P                 -0.00103302    0.00348721    0.21469798
 C                 -1.19779514   -1.13214825    1.01293964
 C                 -2.10160000   -0.62247344    1.94446926
 C                 -3.06712728   -1.42812881    2.51732129
 C                 -3.14881988   -2.76358324    2.16121783
 C                 -2.24274287   -3.28313106    1.25605807
 C                 -1.25582906   -2.49231906    0.67751169
 C                 -0.26211344   -3.14416834   -0.23136074
 C                 -0.40010043    1.62148833    0.97741411
 C                  0.47625382    2.16575471    1.91554984
 C                  0.25061577    3.41419736    2.46324920
 C                 -0.85880068    4.14570981    2.07469130
 C                 -1.74520840    3.60492558    1.16249191
 C                 -1.54307178    2.34526335    0.60890699
 C                 -2.58765646    1.79391237   -0.30932431
 H                  2.99512879    2.26560041    0.27813820
 H                  3.68385836    1.23719591   -0.97641208
 H                  1.92512023    1.43910726   -0.85284052
 H                  4.90081421    0.20942005    0.95122819
 H                  4.91643235   -1.61828703    2.59885395
 H                  2.77760878   -2.66652830    3.28284534
 H                  0.67818170   -1.92304755    2.27416340
 H                 -2.04290119    0.41577733    2.23325525
 H                 -3.75519248   -1.01111787    3.23783545
 H                 -3.90766603   -3.39915465    2.59327642
 H                 -2.28951241   -4.32977150    0.98973383
 H                 -0.75947392   -3.81886372   -0.92688834
 H                  0.30116342   -2.40186695   -0.79911810
 H                  0.45001291   -3.72895495    0.35165209
 H                  1.34097097    1.60138619    2.22949531
 H                  0.94260726    3.81428165    3.18957765
 H                 -1.03794159    5.12772167    2.48703555
 H                 -2.62345965    4.16365146    0.87085175
 H                 -2.21244916    0.93158651   -0.86284793
 H                 -3.45601384    1.46931151    0.26478516
 H                 -2.91864480    2.55225232   -1.01755795

