%mem=16GB
%nprocshared=16
# opt freq B3LYP/6-31G(d) empiricaldispersion=gd3bj integral=ultrafine 

-81.60986347

0 1
Ni                  0.03013852    0.34993597   -2.19823301
 C                  1.68233845    1.04183192   -2.22515018
 O                  2.69768330    1.55037952   -2.11599398
 C                 -1.15951534    1.68474700   -2.44025975
 O                 -1.80015223    2.57958590   -2.73893112
 C                 -0.40180018   -1.02533752   -3.27848100
 O                 -0.75036861   -1.74768310   -4.09132117
 C                  2.58831796   -1.90855547   -0.93890145
 C                  2.53069091   -1.48006728    0.49396387
 C                  3.59001296   -1.86032079    1.31845010
 C                  3.62076280   -1.54225995    2.65992680
 C                  2.56753752   -0.83127275    3.21520584
 C                  1.51408792   -0.44229425    2.41613785
 C                  1.48501473   -0.74012225    1.05026206
 P                 -0.01553633   -0.17919882    0.14395564
 C                 -1.19183774   -1.20449830    1.11116595
 C                 -1.76746598   -0.68142306    2.26742084
 C                 -2.60763677   -1.44809655    3.05151933
 C                 -2.88805860   -2.75407675    2.68698879
 C                 -2.30790709   -3.28402606    1.55026771
 C                 -1.44887087   -2.53238332    0.75625703
 C                 -0.79180680   -3.16663882   -0.42508972
 C                 -0.27683530    1.52077660    0.77519770
 C                  0.84082198    2.26547464    1.15060596
 C                  0.72125780    3.58605690    1.53833155
 C                 -0.52609218    4.18735309    1.54527938
 C                 -1.63339993    3.46818509    1.13497292
 C                 -1.53301699    2.14223526    0.72781631
 C                 -2.77115425    1.44196879    0.25343601
 H                  1.70742638   -1.57994792   -1.49042961
 H                  3.47540630   -1.49577834   -1.42002791
 H                  2.65419944   -2.99392528   -1.00436306
 H                  4.40218309   -2.42479023    0.88197153
 H                  4.45488316   -1.85102147    3.27264879
 H                  2.56772490   -0.58269491    4.26610380
 H                  0.69837005    0.11212177    2.85506812
 H                 -1.56066259    0.33766613    2.55975176
 H                 -3.04368091   -1.02390556    3.94421009
 H                 -3.55065000   -3.35791029    3.28941354
 H                 -2.51512672   -4.30729176    1.27066717
 H                 -1.36889523   -4.01358995   -0.78898214
 H                 -0.67714991   -2.44106497   -1.23151295
 H                  0.20086887   -3.51992220   -0.14618124
 H                  1.81827866    1.80290602    1.13267341
 H                  1.59982763    4.14362248    1.82802479
 H                 -0.63321586    5.21759291    1.85157680
 H                 -2.60351286    3.94515972    1.11452957
 H                 -3.38946289    2.12671615   -0.32551240
 H                 -2.52432233    0.57996519   -0.36848834
 H                 -3.36568445    1.08970853    1.09616802

