%mem=16GB
%nprocshared=16
# opt freq B3LYP/6-31G(d) empiricaldispersion=gd3bj integral=ultrafine 

-81.61292018

0 1
Ni                  0.09035204   -0.18648578   -2.23990878
 C                  1.46956049   -1.32063275   -2.33473730
 O                  2.36468032   -2.02838172   -2.28458484
 C                  0.33895372    1.35205895   -3.14259209
 O                  0.47278234    2.24711672   -3.84008186
 C                 -1.54707164   -0.87890661   -2.49282119
 O                 -2.60591282   -1.30196290   -2.54036091
 C                  2.61837076    1.66314156   -0.14183244
 C                  2.66985395    0.50180255    0.79658672
 C                  3.85608645    0.22331050    1.46591325
 C                  3.95130753   -0.82204104    2.36494116
 C                  2.83896794   -1.60661906    2.61624095
 C                  1.65140535   -1.34910711    1.95826161
 C                  1.54990220   -0.30758019    1.03791238
 P                  0.00017163    0.04530931    0.12031664
 C                 -1.16838156   -1.27230286    0.62272082
 C                 -0.67625441   -2.56587419    0.42344789
 C                 -1.44795358   -3.67825915    0.68885244
 C                 -2.74597841   -3.50865430    1.14292842
 C                 -3.26269925   -2.23353552    1.27187313
 C                 -2.50610207   -1.09810580    0.99394114
 C                 -3.17027662    0.24214342    1.06127624
 C                 -0.47271615    1.64368790    0.87369735
 C                 -0.71043458    2.69045345   -0.01403213
 C                 -1.00990241    3.96198448    0.43302500
 C                 -1.06572831    4.20145123    1.79569044
 C                 -0.84076964    3.16542263    2.68379216
 C                 -0.54682119    1.87601273    2.25259680
 C                 -0.33941777    0.80203848    3.27230698
 H                  3.61730789    1.94320235   -0.46885866
 H                  2.01626220    1.41719501   -1.02185756
 H                  2.16072044    2.52459660    0.34535637
 H                  4.72025979    0.84327325    1.27322319
 H                  4.88574848   -1.02115590    2.86849533
 H                  2.89163124   -2.42063509    3.32404448
 H                  0.79478006   -1.96873227    2.17567123
 H                  0.32773067   -2.69013476    0.03391050
 H                 -1.04367043   -4.66752951    0.53234913
 H                 -3.36239271   -4.36765233    1.36298629
 H                 -4.29157001   -2.10696875    1.57775649
 H                 -2.93169008    0.75666894    1.99035516
 H                 -2.84708221    0.86995468    0.23255781
 H                 -4.25042701    0.12432545    1.00646380
 H                 -0.66344772    2.48655226   -1.07880160
 H                 -1.19419241    4.75663061   -0.27461194
 H                 -1.29070254    5.19090516    2.16538335
 H                 -0.89705881    3.35541067    3.74633572
 H                 -0.65948870   -0.16474070    2.89264779
 H                  0.71602517    0.73205621    3.53529789
 H                 -0.89650632    1.02946318    4.17897549

