%mem=16GB
%nprocshared=16
# opt freq B3LYP/6-31G(d) empiricaldispersion=gd3bj integral=ultrafine 

-81.61621018

0 1
Ni                 -0.14202765    0.21235161   -2.23029074
 C                 -0.48289394   -1.34467992   -3.07322624
 O                 -0.67109017   -2.25664001   -3.73511590
 C                  1.50611660    0.78908765   -2.64972332
 O                  2.57900770    1.09006557   -2.89853460
 C                 -1.50675181    1.37419586   -2.26835371
 O                 -2.39745246    2.07715335   -2.13964529
 C                  2.03654327   -2.26736944   -0.36398026
 C                  2.49566602   -1.15042068    0.51599550
 C                  3.78918979   -1.15952222    1.02444867
 C                  4.24161553   -0.15817065    1.86404096
 C                  3.39066399    0.87484766    2.21943236
 C                  2.10221019    0.90447996    1.72197799
 C                  1.64357592   -0.09515126    0.86693885
 P                 -0.03683122   -0.01701995    0.14941963
 C                 -0.86774817   -1.49897618    0.83635574
 C                 -1.71457427   -2.17381122   -0.03961454
 C                 -2.38109394   -3.32425496    0.33390297
 C                 -2.19565726   -3.82432688    1.61098052
 C                 -1.37561562   -3.14909047    2.49694211
 C                 -0.70867977   -1.98034630    2.14451258
 C                  0.11947477   -1.28985163    3.18181950
 C                 -0.88240138    1.37196929    0.99425579
 C                 -2.00253842    1.09139636    1.77803034
 C                 -2.72863064    2.10236841    2.37722834
 C                 -2.35327159    3.42199030    2.19032147
 C                 -1.26301669    3.71184903    1.39249919
 C                 -0.52153158    2.70890225    0.77651894
 C                  0.62152379    3.11708105   -0.10160645
 H                  2.88255774   -2.79346600   -0.80077831
 H                  1.44273090   -2.98221382    0.20670937
 H                  1.40577471   -1.88213573   -1.17111410
 H                  4.45085611   -1.97013787    0.75314702
 H                  5.25304245   -0.18595174    2.24188977
 H                  3.72888731    1.65783374    2.88182361
 H                  1.44019952    1.70525208    2.01427041
 H                 -1.85239725   -1.77280303   -1.03832270
 H                 -3.03382148   -3.82456375   -0.36607888
 H                 -2.69642904   -4.72989420    1.92010121
 H                 -1.25024035   -3.53310429    3.49946251
 H                 -0.21527566   -1.57569001    4.17669509
 H                  1.16735669   -1.57211982    3.08458233
 H                  0.04704194   -0.21008063    3.08425045
 H                 -2.31406397    0.06690234    1.91742356
 H                 -3.58813899    1.85811506    2.98365467
 H                 -2.91316115    4.22074589    2.65384665
 H                 -0.97549919    4.74096145    1.22808503
 H                  1.14910355    2.24982260   -0.49628747
 H                  0.24994349    3.70889741   -0.93954348
 H                  1.33125482    3.73440155    0.44801281

